<?xml version="1.0" encoding="UTF-8"?>

<!-- generated on 2023-11-14 16:28:04 by Eclipse SUMO netedit Version 1.18.0
<configuration xmlns:xsi="http://www.w3.org/2001/XMLSchema-instance" xsi:noNamespaceSchemaLocation="http://sumo.dlr.de/xsd/neteditConfiguration.xsd">

    <input>
        <sumo-net-file value="1.net.xml"/>
    </input>

    <output>
        <output-file value="1.net.xml"/>
    </output>

    <processing>
        <geometry.min-radius.fix.railways value="false"/>
        <geometry.max-grade.fix value="false"/>
        <offset.disable-normalization value="true"/>
        <lefthand value="0"/>
    </processing>

    <junctions>
        <no-turnarounds value="true"/>
        <junctions.corner-detail value="0"/>
        <junctions.limit-turn-speed value="-1.00"/>
        <rectangular-lane-cut value="0"/>
    </junctions>

    <pedestrian>
        <walkingareas value="0"/>
    </pedestrian>

</configuration>
-->

<net version="1.16" xmlns:xsi="http://www.w3.org/2001/XMLSchema-instance" xsi:noNamespaceSchemaLocation="http://sumo.dlr.de/xsd/net_file.xsd">

    <location netOffset="0.00,0.00" convBoundary="-1000.00,-1000.00,1000.00,1000.00" origBoundary="-1000.00,-1000.00,1000.00,1000.00" projParameter="!"/>

    <type id="a" priority="1" numLanes="1" speed="13.89"/>

    <edge id=":5_0" function="internal">
        <lane id=":5_0_0" index="0" speed="13.89" length="9.03" shape="-1.60,7.20 -1.95,4.75 -3.00,3.00 -4.75,1.95 -7.20,1.60"/>
    </edge>
    <edge id=":5_1" function="internal">
        <lane id=":5_1_0" index="0" speed="13.89" length="14.40" shape="-1.60,7.20 -1.60,-7.20"/>
    </edge>
    <edge id=":5_2" function="internal">
        <lane id=":5_2_0" index="0" speed="13.89" length="14.19" shape="-1.60,7.20 -1.05,3.35 0.60,0.60 3.35,-1.05 7.20,-1.60"/>
    </edge>
    <edge id=":5_3" function="internal">
        <lane id=":5_3_0" index="0" speed="13.89" length="9.03" shape="7.20,1.60 4.75,1.95 3.00,3.00 1.95,4.75 1.60,7.20"/>
    </edge>
    <edge id=":5_4" function="internal">
        <lane id=":5_4_0" index="0" speed="13.89" length="14.40" shape="7.20,1.60 -7.20,1.60"/>
    </edge>
    <edge id=":5_5" function="internal">
        <lane id=":5_5_0" index="0" speed="13.89" length="14.19" shape="7.20,1.60 3.35,1.05 0.60,-0.60 -1.05,-3.35 -1.60,-7.20"/>
    </edge>
    <edge id=":5_6" function="internal">
        <lane id=":5_6_0" index="0" speed="13.89" length="9.03" shape="1.60,-7.20 1.95,-4.75 3.00,-3.00 4.75,-1.95 7.20,-1.60"/>
    </edge>
    <edge id=":5_7" function="internal">
        <lane id=":5_7_0" index="0" speed="13.89" length="14.40" shape="1.60,-7.20 1.60,7.20"/>
    </edge>
    <edge id=":5_8" function="internal">
        <lane id=":5_8_0" index="0" speed="13.89" length="14.19" shape="1.60,-7.20 1.05,-3.35 -0.60,-0.60 -3.35,1.05 -7.20,1.60"/>
    </edge>
    <edge id=":5_9" function="internal">
        <lane id=":5_9_0" index="0" speed="13.89" length="9.03" shape="-7.20,-1.60 -4.75,-1.95 -3.00,-3.00 -1.95,-4.75 -1.60,-7.20"/>
    </edge>
    <edge id=":5_10" function="internal">
        <lane id=":5_10_0" index="0" speed="13.89" length="14.40" shape="-7.20,-1.60 7.20,-1.60"/>
    </edge>
    <edge id=":5_11" function="internal">
        <lane id=":5_11_0" index="0" speed="13.89" length="14.19" shape="-7.20,-1.60 -3.35,-1.05 -0.60,0.60 1.05,3.35 1.60,7.20"/>
    </edge>

    <edge id="D1" from="1" to="5" priority="1" type="a">
        <lane id="D1_0" index="0" speed="13.89" length="992.80" shape="1.60,-1000.00 1.60,-7.20"/>
    </edge>
    <edge id="D2" from="5" to="2" priority="1" type="a">
        <lane id="D2_0" index="0" speed="13.89" length="992.80" shape="1.60,7.20 1.60,1000.00"/>
    </edge>
    <edge id="D3" from="2" to="5" priority="1" type="a">
        <lane id="D3_0" index="0" speed="13.89" length="992.80" shape="-1.60,1000.00 -1.60,7.20"/>
    </edge>
    <edge id="D4" from="5" to="1" priority="1" type="a">
        <lane id="D4_0" index="0" speed="13.89" length="992.80" shape="-1.60,-7.20 -1.60,-1000.00"/>
    </edge>
    <edge id="D5" from="3" to="5" priority="1" type="a">
        <lane id="D5_0" index="0" speed="13.89" length="992.80" shape="-1000.00,-1.60 -7.20,-1.60"/>
    </edge>
    <edge id="D6" from="5" to="4" priority="1" type="a">
        <lane id="D6_0" index="0" speed="13.89" length="992.80" shape="7.20,-1.60 1000.00,-1.60"/>
    </edge>
    <edge id="D7" from="4" to="5" priority="1" type="a">
        <lane id="D7_0" index="0" speed="13.89" length="992.80" shape="1000.00,1.60 7.20,1.60"/>
    </edge>
    <edge id="D8" from="5" to="3" priority="1" type="a">
        <lane id="D8_0" index="0" speed="13.89" length="992.80" shape="-7.20,1.60 -1000.00,1.60"/>
    </edge>

    <junction id="1" type="dead_end" x="0.00" y="-1000.00" incLanes="D4_0" intLanes="" shape="0.00,-1000.00 -3.20,-1000.00 0.00,-1000.00"/>
    <junction id="2" type="dead_end" x="0.00" y="1000.00" incLanes="D2_0" intLanes="" shape="0.00,1000.00 3.20,1000.00 0.00,1000.00"/>
    <junction id="3" type="dead_end" x="-1000.00" y="0.00" incLanes="D8_0" intLanes="" shape="-1000.00,0.00 -1000.00,3.20 -1000.00,0.00"/>
    <junction id="4" type="dead_end" x="1000.00" y="0.00" incLanes="D6_0" intLanes="" shape="1000.00,0.00 1000.00,-3.20 1000.00,0.00"/>
    <junction id="5" type="right_before_left" x="0.00" y="0.00" incLanes="D3_0 D7_0 D1_0 D5_0" intLanes=":5_0_0 :5_1_0 :5_2_0 :5_3_0 :5_4_0 :5_5_0 :5_6_0 :5_7_0 :5_8_0 :5_9_0 :5_10_0 :5_11_0" shape="-3.20,7.20 3.20,7.20 7.20,3.20 7.20,-3.20 3.20,-7.20 -3.20,-7.20 -7.20,-3.20 -7.20,3.20">
        <request index="0"  response="000000000000" foes="000100010000" cont="0"/>
        <request index="1"  response="111000000000" foes="111100110000" cont="0"/>
        <request index="2"  response="110011000000" foes="110111110000" cont="0"/>
        <request index="3"  response="000000000000" foes="100010000000" cont="0"/>
        <request index="4"  response="000000000111" foes="100110000111" cont="0"/>
        <request index="5"  response="011000000110" foes="111110000110" cont="0"/>
        <request index="6"  response="000000000000" foes="010000000100" cont="0"/>
        <request index="7"  response="000000111000" foes="110000111100" cont="0"/>
        <request index="8"  response="000000110111" foes="110000110111" cont="0"/>
        <request index="9"  response="000000000000" foes="000000100010" cont="0"/>
        <request index="10" response="000111000000" foes="000111100110" cont="0"/>
        <request index="11" response="000110111000" foes="000110111110" cont="0"/>
    </junction>

    <connection from="D1" to="D6" fromLane="0" toLane="0" via=":5_6_0" dir="r" state="M"/>
    <connection from="D1" to="D2" fromLane="0" toLane="0" via=":5_7_0" dir="s" state="="/>
    <connection from="D1" to="D8" fromLane="0" toLane="0" via=":5_8_0" dir="l" state="="/>
    <connection from="D3" to="D8" fromLane="0" toLane="0" via=":5_0_0" dir="r" state="M"/>
    <connection from="D3" to="D4" fromLane="0" toLane="0" via=":5_1_0" dir="s" state="="/>
    <connection from="D3" to="D6" fromLane="0" toLane="0" via=":5_2_0" dir="l" state="="/>
    <connection from="D5" to="D4" fromLane="0" toLane="0" via=":5_9_0" dir="r" state="M"/>
    <connection from="D5" to="D6" fromLane="0" toLane="0" via=":5_10_0" dir="s" state="="/>
    <connection from="D5" to="D2" fromLane="0" toLane="0" via=":5_11_0" dir="l" state="="/>
    <connection from="D7" to="D2" fromLane="0" toLane="0" via=":5_3_0" dir="r" state="M"/>
    <connection from="D7" to="D8" fromLane="0" toLane="0" via=":5_4_0" dir="s" state="="/>
    <connection from="D7" to="D4" fromLane="0" toLane="0" via=":5_5_0" dir="l" state="="/>

    <connection from=":5_0" to="D8" fromLane="0" toLane="0" dir="r" state="M"/>
    <connection from=":5_1" to="D4" fromLane="0" toLane="0" dir="s" state="M"/>
    <connection from=":5_2" to="D6" fromLane="0" toLane="0" dir="l" state="M"/>
    <connection from=":5_3" to="D2" fromLane="0" toLane="0" dir="r" state="M"/>
    <connection from=":5_4" to="D8" fromLane="0" toLane="0" dir="s" state="M"/>
    <connection from=":5_5" to="D4" fromLane="0" toLane="0" dir="l" state="M"/>
    <connection from=":5_6" to="D6" fromLane="0" toLane="0" dir="r" state="M"/>
    <connection from=":5_7" to="D2" fromLane="0" toLane="0" dir="s" state="M"/>
    <connection from=":5_8" to="D8" fromLane="0" toLane="0" dir="l" state="M"/>
    <connection from=":5_9" to="D4" fromLane="0" toLane="0" dir="r" state="M"/>
    <connection from=":5_10" to="D6" fromLane="0" toLane="0" dir="s" state="M"/>
    <connection from=":5_11" to="D2" fromLane="0" toLane="0" dir="l" state="M"/>

</net>
