<routes>
<vType accel='7.0' decel='5.0' id='CarA' maxSpeed='18.0' minGap='2.5' sigma='0.5' jmIgnoreJunctionFoeProb='0.6'/>
<route id='route1' edges='D5 D6' /> <!-- W2E -->
<route id='route2' edges='D7 D8' /> <!-- E2W -->
<route id='route3' edges='D1 D2' /> <!-- S2N -->
<route id='route4' edges='D3 D4' /> <!-- N2S -->
<route id='route5' edges='D5 D4' /> <!-- W2S -->
<route id='route6' edges='D5 D2' /> <!-- W2N -->
<route id='route7' edges='D7 D2' /> <!-- E2N -->
<route id='route8' edges='D7 D4' /> <!-- E2S -->
<route id='route9' edges='D1 D6' /> <!-- S2W -->
<route id='route10' edges='D1 D8' /> <!-- S2E -->
<route id='route11' edges='D3 D8' /> <!-- N2W -->
<route id='route12' edges='D3 D6' /> <!-- N2E -->
<vehicle depart='1' id='0' route='route8' departPos='282.83087158203125' departSpeed='10.336004257202148' departLane='first' type='CarA'/>
<vehicle depart='1' id='1' route='route4' departPos='339.78118896484375' departSpeed='10.904374122619629' departLane='first' type='CarA'/>
<vehicle depart='1' id='2' route='route12' departPos='186.05841064453125' departSpeed='10.521896362304688' departLane='first' type='CarA'/>
<vehicle depart='1' id='3' route='route4' departPos='309.140625' departSpeed='11.06674575805664' departLane='first' type='CarA'/>
<vehicle depart='1' id='4' route='route1' departPos='156.29547119140625' departSpeed='10.967450141906738' departLane='first' type='CarA'/>
<vehicle depart='1' id='5' route='route2' departPos='175.78875732421875' departSpeed='9.766657829284668' departLane='first' type='CarA'/>
<vehicle depart='1' id='6' route='route4' departPos='166.54962158203125' departSpeed='9.404755592346191' departLane='first' type='CarA'/>
<vehicle depart='1' id='7' route='route12' departPos='272.69390869140625' departSpeed='9.454845428466797' departLane='first' type='CarA'/>
<vehicle depart='1' id='8' route='route12' departPos='265.31817626953125' departSpeed='8.883487701416016' departLane='first' type='CarA'/>
<vehicle depart='1' id='9' route='route5' departPos='183.223876953125' departSpeed='9.930814743041992' departLane='first' type='CarA'/>
<vehicle depart='1' id='10' route='route4' departPos='122.7882080078125' departSpeed='9.511734962463379' departLane='first' type='CarA'/>
<vehicle depart='1' id='11' route='route1' departPos='239.19866943359375' departSpeed='9.581222534179688' departLane='first' type='CarA'/>
<vehicle depart='1' id='12' route='route12' departPos='219.96759033203125' departSpeed='8.306148529052734' departLane='first' type='CarA'/>
<vehicle depart='1' id='13' route='route9' departPos='240.14935302734375' departSpeed='9.017578125' departLane='first' type='CarA'/>
<vehicle depart='1' id='14' route='route4' departPos='196.4013671875' departSpeed='9.355195999145508' departLane='first' type='CarA'/>
<vehicle depart='1' id='15' route='route4' departPos='142.747802734375' departSpeed='8.610589981079102' departLane='first' type='CarA'/>
<vehicle depart='1' id='16' route='route12' departPos='276.64483642578125' departSpeed='8.94237995147705' departLane='first' type='CarA'/>
<vehicle depart='1' id='17' route='route4' departPos='182.76727294921875' departSpeed='8.455121994018555' departLane='first' type='CarA'/>
<vehicle depart='1' id='18' route='route12' departPos='221.86712646484375' departSpeed='8.729968070983887' departLane='first' type='CarA'/>
<vehicle depart='1' id='19' route='route1' departPos='209.89947509765625' departSpeed='8.199207305908203' departLane='first' type='CarA'/>
<vehicle depart='1' id='20' route='route9' departPos='229.36871337890625' departSpeed='7.1863203048706055' departLane='first' type='CarA'/>
<vehicle depart='1' id='21' route='route1' departPos='191.99884033203125' departSpeed='7.912333011627197' departLane='first' type='CarA'/>
<vehicle depart='1' id='22' route='route9' departPos='157.41473388671875' departSpeed='7.47481107711792' departLane='first' type='CarA'/>
<vehicle depart='1' id='23' route='route8' departPos='157.5618896484375' departSpeed='7.8582282066345215' departLane='first' type='CarA'/>
<vehicle depart='1' id='24' route='route8' departPos='171.38616943359375' departSpeed='7.358893394470215' departLane='first' type='CarA'/>
<vehicle depart='1' id='25' route='route1' departPos='165.75457763671875' departSpeed='7.328395843505859' departLane='first' type='CarA'/>
<vehicle depart='1' id='26' route='route1' departPos='231.41888427734375' departSpeed='7.506756782531738' departLane='first' type='CarA'/>
<vehicle depart='1' id='27' route='route5' departPos='197.952392578125' departSpeed='6.664069175720215' departLane='first' type='CarA'/>
<vehicle depart='1' id='28' route='route12' departPos='184.58209228515625' departSpeed='7.253230094909668' departLane='first' type='CarA'/>
<vehicle depart='1' id='29' route='route9' departPos='191.48211669921875' departSpeed='6.861815929412842' departLane='first' type='CarA'/>
<vehicle depart='1' id='30' route='route8' departPos='123.474609375' departSpeed='6.974804878234863' departLane='first' type='CarA'/>
<vehicle depart='1' id='31' route='route12' departPos='164.74859619140625' departSpeed='6.783324241638184' departLane='first' type='CarA'/>
<vehicle depart='1' id='32' route='route12' departPos='151.50592041015625' departSpeed='7.289516925811768' departLane='first' type='CarA'/>
<vehicle depart='1' id='33' route='route9' departPos='208.16033935546875' departSpeed='7.0460615158081055' departLane='first' type='CarA'/>
<vehicle depart='1' id='34' route='route4' departPos='155.49591064453125' departSpeed='6.8221540451049805' departLane='first' type='CarA'/>
<vehicle depart='1' id='35' route='route1' departPos='188.26849365234375' departSpeed='7.2975287437438965' departLane='first' type='CarA'/>
<vehicle depart='1' id='36' route='route8' departPos='104.5325927734375' departSpeed='7.282731056213379' departLane='first' type='CarA'/>
<vehicle depart='1' id='37' route='route5' departPos='138.97802734375' departSpeed='6.500979900360107' departLane='first' type='CarA'/>
<vehicle depart='1' id='38' route='route1' departPos='261.47308349609375' departSpeed='6.9970574378967285' departLane='first' type='CarA'/>
<vehicle depart='1' id='39' route='route1' departPos='133.10736083984375' departSpeed='7.08608341217041' departLane='first' type='CarA'/>
<vehicle depart='1' id='40' route='route12' departPos='129.42962646484375' departSpeed='7.259829998016357' departLane='first' type='CarA'/>
<vehicle depart='1' id='41' route='route8' departPos='124.009521484375' departSpeed='7.126333236694336' departLane='first' type='CarA'/>
<vehicle depart='1' id='42' route='route4' departPos='99.7335205078125' departSpeed='6.823545455932617' departLane='first' type='CarA'/>
<vehicle depart='1' id='43' route='route9' departPos='78.76776123046875' departSpeed='6.824427604675293' departLane='first' type='CarA'/>
<vehicle depart='1' id='44' route='route5' departPos='113.42987060546875' departSpeed='7.023717403411865' departLane='first' type='CarA'/>
<vehicle depart='1' id='45' route='route8' departPos='83.44512939453125' departSpeed='7.261727333068848' departLane='first' type='CarA'/>
<vehicle depart='1' id='46' route='route10' departPos='105.23419189453125' departSpeed='7.684536457061768' departLane='first' type='CarA'/>
<vehicle depart='1' id='47' route='route12' departPos='119.17718505859375' departSpeed='6.668666362762451' departLane='first' type='CarA'/>
<vehicle depart='1' id='48' route='route1' departPos='142.02362060546875' departSpeed='7.633819580078125' departLane='first' type='CarA'/>
<vehicle depart='1' id='49' route='route1' departPos='99.42132568359375' departSpeed='7.974456310272217' departLane='first' type='CarA'/>
</routes>