<?xml version="1.0" encoding="UTF-8"?>

<!-- generated on 2024-02-08 16:15:35 by Eclipse SUMO netedit Version 1.12.0
<configuration xmlns:xsi="http://www.w3.org/2001/XMLSchema-instance" xsi:noNamespaceSchemaLocation="http://sumo.dlr.de/xsd/netconvertConfiguration.xsd">

    <input>
        <sumo-net-file value="/home/sergione/Documents/GenerativeSUMO/Scenarios/4Ways1LaneRegulated/4Ways1LaneRegulated.net.xml"/>
    </input>

    <output>
        <output-file value="/home/sergione/Documents/GenerativeSUMO/Scenarios/4Ways1LaneRegulated/4Ways1LaneRegulated.net.xml"/>
    </output>

    <processing>
        <geometry.min-radius.fix.railways value="false"/>
        <geometry.max-grade.fix value="false"/>
        <offset.disable-normalization value="true"/>
        <lefthand value="false"/>
    </processing>

    <junctions>
        <no-internal-links value="false"/>
        <no-turnarounds value="true"/>
        <junctions.corner-detail value="0"/>
        <junctions.limit-turn-speed value="-1"/>
        <rectangular-lane-cut value="false"/>
    </junctions>

    <pedestrian>
        <walkingareas value="false"/>
    </pedestrian>

    <report>
        <aggregate-warnings value="5"/>
    </report>

</configuration>
-->

<net version="1.9" xmlns:xsi="http://www.w3.org/2001/XMLSchema-instance" xsi:noNamespaceSchemaLocation="http://sumo.dlr.de/xsd/net_file.xsd">

    <location netOffset="0.00,0.00" convBoundary="-1000.00,-1000.00,1000.00,1000.00" origBoundary="-1000.00,-1000.00,1000.00,1000.00" projParameter="!"/>

    <type id="a" priority="1" numLanes="1" speed="13.89"/>

    <edge id=":1_w0" function="walkingarea">
        <lane id=":1_w0_0" index="0" allow="pedestrian" speed="1.00" length="8.40" width="2.00" shape="3.20,-1000.00 5.20,-1000.00 -5.20,-1000.00 -3.20,-1000.00"/>
    </edge>
    <edge id=":2_w0" function="walkingarea">
        <lane id=":2_w0_0" index="0" allow="pedestrian" speed="1.00" length="8.40" width="2.00" shape="-3.20,1000.00 -5.20,1000.00 5.20,1000.00 3.20,1000.00"/>
    </edge>
    <edge id=":3_w0" function="walkingarea">
        <lane id=":3_w0_0" index="0" allow="pedestrian" speed="1.00" length="8.40" width="2.00" shape="-1000.00,-3.20 -1000.00,-5.20 -1000.00,5.20 -1000.00,3.20"/>
    </edge>
    <edge id=":4_w0" function="walkingarea">
        <lane id=":4_w0_0" index="0" allow="pedestrian" speed="1.00" length="8.40" width="2.00" shape="1000.00,3.20 1000.00,5.20 1000.00,-5.20 1000.00,-3.20"/>
    </edge>
    <edge id=":5_0" function="internal">
        <lane id=":5_0_0" index="0" disallow="pedestrian" speed="13.89" length="4.75" shape="-1.60,7.20 -1.95,4.75 -3.00,3.00 -3.20,2.88"/>
    </edge>
    <edge id=":5_1" function="internal">
        <lane id=":5_1_0" index="0" disallow="pedestrian" speed="13.89" length="14.40" shape="-1.60,7.20 -1.60,-7.20"/>
    </edge>
    <edge id=":5_2" function="internal">
        <lane id=":5_2_0" index="0" disallow="pedestrian" speed="13.89" length="4.07" shape="-1.60,7.20 -1.05,3.35 -0.96,3.20"/>
    </edge>
    <edge id=":5_12" function="internal">
        <lane id=":5_12_0" index="0" disallow="pedestrian" speed="13.89" length="4.28" shape="-3.20,2.88 -4.75,1.95 -7.20,1.60"/>
    </edge>
    <edge id=":5_13" function="internal">
        <lane id=":5_13_0" index="0" disallow="pedestrian" speed="13.89" length="10.13" shape="-0.96,3.20 0.60,0.60 3.35,-1.05 7.20,-1.60"/>
    </edge>
    <edge id=":5_3" function="internal">
        <lane id=":5_3_0" index="0" disallow="pedestrian" speed="13.89" length="9.03" shape="7.20,1.60 4.75,1.95 3.00,3.00 1.95,4.75 1.60,7.20"/>
    </edge>
    <edge id=":5_4" function="internal">
        <lane id=":5_4_0" index="0" disallow="pedestrian" speed="13.89" length="14.40" shape="7.20,1.60 -7.20,1.60"/>
    </edge>
    <edge id=":5_5" function="internal">
        <lane id=":5_5_0" index="0" disallow="pedestrian" speed="13.89" length="14.19" shape="7.20,1.60 3.35,1.05 0.60,-0.60 -1.05,-3.35 -1.60,-7.20"/>
    </edge>
    <edge id=":5_6" function="internal">
        <lane id=":5_6_0" index="0" disallow="pedestrian" speed="13.89" length="4.75" shape="1.60,-7.20 1.95,-4.75 3.00,-3.00 3.20,-2.88"/>
    </edge>
    <edge id=":5_7" function="internal">
        <lane id=":5_7_0" index="0" disallow="pedestrian" speed="13.89" length="14.40" shape="1.60,-7.20 1.60,7.20"/>
    </edge>
    <edge id=":5_8" function="internal">
        <lane id=":5_8_0" index="0" disallow="pedestrian" speed="13.89" length="4.07" shape="1.60,-7.20 1.05,-3.35 0.96,-3.20"/>
    </edge>
    <edge id=":5_14" function="internal">
        <lane id=":5_14_0" index="0" disallow="pedestrian" speed="13.89" length="4.28" shape="3.20,-2.88 4.75,-1.95 7.20,-1.60"/>
    </edge>
    <edge id=":5_15" function="internal">
        <lane id=":5_15_0" index="0" disallow="pedestrian" speed="13.89" length="10.13" shape="0.96,-3.20 -0.60,-0.60 -3.35,1.05 -7.20,1.60"/>
    </edge>
    <edge id=":5_9" function="internal">
        <lane id=":5_9_0" index="0" disallow="pedestrian" speed="13.89" length="9.03" shape="-7.20,-1.60 -4.75,-1.95 -3.00,-3.00 -1.95,-4.75 -1.60,-7.20"/>
    </edge>
    <edge id=":5_10" function="internal">
        <lane id=":5_10_0" index="0" disallow="pedestrian" speed="13.89" length="14.40" shape="-7.20,-1.60 7.20,-1.60"/>
    </edge>
    <edge id=":5_11" function="internal">
        <lane id=":5_11_0" index="0" disallow="pedestrian" speed="13.89" length="14.19" shape="-7.20,-1.60 -3.35,-1.05 -0.60,0.60 1.05,3.35 1.60,7.20"/>
    </edge>
    <edge id=":5_c0" function="crossing" crossingEdges="D2 D3">
        <lane id=":5_c0_0" index="0" allow="pedestrian" speed="1.00" length="6.40" width="4.00" shape="3.20,5.20 -3.20,5.20"/>
    </edge>
    <edge id=":5_c1" function="crossing" crossingEdges="D6 D7">
        <lane id=":5_c1_0" index="0" allow="pedestrian" speed="1.00" length="6.40" width="4.00" shape="5.20,-3.20 5.20,3.20"/>
    </edge>
    <edge id=":5_c2" function="crossing" crossingEdges="D4 D1">
        <lane id=":5_c2_0" index="0" allow="pedestrian" speed="1.00" length="6.40" width="4.00" shape="-3.20,-5.20 3.20,-5.20"/>
    </edge>
    <edge id=":5_c3" function="crossing" crossingEdges="D8 D5">
        <lane id=":5_c3_0" index="0" allow="pedestrian" speed="1.00" length="6.40" width="4.00" shape="-5.20,3.20 -5.20,-3.20"/>
    </edge>
    <edge id=":5_w0" function="walkingarea">
        <lane id=":5_w0_0" index="0" allow="pedestrian" speed="1.00" length="3.30" width="4.00" shape="-3.20,3.20 -7.20,3.20 -7.20,5.20 -5.20,7.20 -3.20,7.20 -3.20,3.20"/>
    </edge>
    <edge id=":5_w1" function="walkingarea">
        <lane id=":5_w1_0" index="0" allow="pedestrian" speed="1.00" length="3.30" width="4.00" shape="3.20,3.20 3.20,7.20 5.20,7.20 7.20,5.20 7.20,3.20 3.20,3.20"/>
    </edge>
    <edge id=":5_w2" function="walkingarea">
        <lane id=":5_w2_0" index="0" allow="pedestrian" speed="1.00" length="3.30" width="4.00" shape="3.20,-3.20 7.20,-3.20 7.20,-5.20 5.20,-7.20 3.20,-7.20 3.20,-3.20"/>
    </edge>
    <edge id=":5_w3" function="walkingarea">
        <lane id=":5_w3_0" index="0" allow="pedestrian" speed="1.00" length="3.30" width="4.00" shape="-3.20,-3.20 -3.20,-7.20 -5.20,-7.20 -7.20,-5.20 -7.20,-3.20 -3.20,-3.20"/>
    </edge>

    <edge id="D1" from="1" to="5" priority="1" type="a">
        <lane id="D1_0" index="0" allow="pedestrian" speed="13.89" length="992.80" width="2.00" shape="4.20,-1000.00 4.20,-7.20"/>
        <lane id="D1_1" index="1" disallow="pedestrian" speed="13.89" length="992.80" shape="1.60,-1000.00 1.60,-7.20"/>
    </edge>
    <edge id="D2" from="5" to="2" priority="1" type="a">
        <lane id="D2_0" index="0" allow="pedestrian" speed="13.89" length="992.80" width="2.00" shape="4.20,7.20 4.20,1000.00"/>
        <lane id="D2_1" index="1" disallow="pedestrian" speed="13.89" length="992.80" shape="1.60,7.20 1.60,1000.00"/>
    </edge>
    <edge id="D3" from="2" to="5" priority="1" type="a">
        <lane id="D3_0" index="0" allow="pedestrian" speed="13.89" length="992.80" width="2.00" shape="-4.20,1000.00 -4.20,7.20"/>
        <lane id="D3_1" index="1" disallow="pedestrian" speed="13.89" length="992.80" shape="-1.60,1000.00 -1.60,7.20"/>
    </edge>
    <edge id="D4" from="5" to="1" priority="1" type="a">
        <lane id="D4_0" index="0" allow="pedestrian" speed="13.89" length="992.80" width="2.00" shape="-4.20,-7.20 -4.20,-1000.00"/>
        <lane id="D4_1" index="1" disallow="pedestrian" speed="13.89" length="992.80" shape="-1.60,-7.20 -1.60,-1000.00"/>
    </edge>
    <edge id="D5" from="3" to="5" priority="1" type="a">
        <lane id="D5_0" index="0" allow="pedestrian" speed="13.89" length="992.80" width="2.00" shape="-1000.00,-4.20 -7.20,-4.20"/>
        <lane id="D5_1" index="1" disallow="pedestrian" speed="13.89" length="992.80" shape="-1000.00,-1.60 -7.20,-1.60"/>
    </edge>
    <edge id="D6" from="5" to="4" priority="1" type="a">
        <lane id="D6_0" index="0" allow="pedestrian" speed="13.89" length="992.80" width="2.00" shape="7.20,-4.20 1000.00,-4.20"/>
        <lane id="D6_1" index="1" disallow="pedestrian" speed="13.89" length="992.80" shape="7.20,-1.60 1000.00,-1.60"/>
    </edge>
    <edge id="D7" from="4" to="5" priority="1" type="a">
        <lane id="D7_0" index="0" allow="pedestrian" speed="13.89" length="992.80" width="2.00" shape="1000.00,4.20 7.20,4.20"/>
        <lane id="D7_1" index="1" disallow="pedestrian" speed="13.89" length="992.80" shape="1000.00,1.60 7.20,1.60"/>
    </edge>
    <edge id="D8" from="5" to="3" priority="1" type="a">
        <lane id="D8_0" index="0" allow="pedestrian" speed="13.89" length="992.80" width="2.00" shape="-7.20,4.20 -1000.00,4.20"/>
        <lane id="D8_1" index="1" disallow="pedestrian" speed="13.89" length="992.80" shape="-7.20,1.60 -1000.00,1.60"/>
    </edge>

    <junction id="1" type="dead_end" x="0.00" y="-1000.00" incLanes="D4_0 D4_1" intLanes="" shape="0.00,-1000.00 -5.20,-1000.00 0.00,-1000.00"/>
    <junction id="2" type="dead_end" x="0.00" y="1000.00" incLanes="D2_0 D2_1" intLanes="" shape="0.00,1000.00 5.20,1000.00 0.00,1000.00"/>
    <junction id="3" type="dead_end" x="-1000.00" y="0.00" incLanes="D8_0 D8_1" intLanes="" shape="-1000.00,0.00 -1000.00,5.20 -1000.00,0.00"/>
    <junction id="4" type="dead_end" x="1000.00" y="0.00" incLanes="D6_0 D6_1" intLanes="" shape="1000.00,0.00 1000.00,-5.20 1000.00,0.00"/>
    <junction id="5" type="priority" x="0.00" y="0.00" incLanes="D3_0 D3_1 D7_0 D7_1 D1_0 D1_1 D5_0 D5_1 :5_w1_0 :5_w2_0 :5_w3_0 :5_w0_0" intLanes=":5_12_0 :5_1_0 :5_13_0 :5_3_0 :5_4_0 :5_5_0 :5_14_0 :5_7_0 :5_15_0 :5_9_0 :5_10_0 :5_11_0 :5_c0_0 :5_c1_0 :5_c2_0 :5_c3_0" shape="-5.20,7.20 5.20,7.20 7.20,5.20 7.20,-5.20 5.20,-7.20 -5.20,-7.20 -7.20,-5.20 -7.20,5.20">
        <request index="0"  response="1000000000000000" foes="1001000100010000" cont="1"/>
        <request index="1"  response="0000000000000000" foes="0101111100110000" cont="0"/>
        <request index="2"  response="0010000011000000" foes="0011110111110000" cont="1"/>
        <request index="3"  response="0001000010000000" foes="0011100010000000" cont="0"/>
        <request index="4"  response="0000000110000111" foes="1010100110000111" cont="0"/>
        <request index="5"  response="0100011110000110" foes="0110111110000110" cont="0"/>
        <request index="6"  response="0010000000000000" foes="0110010000000100" cont="1"/>
        <request index="7"  response="0000000000000000" foes="0101110000111100" cont="0"/>
        <request index="8"  response="1000000000000111" foes="1100110000110111" cont="1"/>
        <request index="9"  response="0100000000000010" foes="1100000000100010" cont="0"/>
        <request index="10" response="0000000111000110" foes="1010000111100110" cont="0"/>
        <request index="11" response="0001000110111110" foes="1001000110111110" cont="0"/>
        <request index="12" response="0000000010000111" foes="0000100010001111" cont="0"/>
        <request index="13" response="0000010000111000" foes="0000010001111100" cont="0"/>
        <request index="14" response="0000000111000010" foes="0000001111100010" cont="0"/>
        <request index="15" response="0000111000010000" foes="0000111100010001" cont="0"/>
    </junction>

    <junction id=":5_12_0" type="internal" x="-3.20" y="2.88" incLanes=":5_0_0" intLanes=":5_4_0 :5_8_0 :5_c0_0 :5_c3_0"/>
    <junction id=":5_13_0" type="internal" x="-0.96" y="3.20" incLanes=":5_2_0 D1_1" intLanes=":5_4_0 :5_5_0 :5_6_0 :5_7_0 :5_10_0 :5_11_0 :5_c0_0 :5_c1_0"/>
    <junction id=":5_14_0" type="internal" x="3.20" y="-2.88" incLanes=":5_6_0" intLanes=":5_2_0 :5_10_0 :5_c1_0 :5_c2_0"/>
    <junction id=":5_15_0" type="internal" x="0.96" y="-3.20" incLanes=":5_8_0 D3_1" intLanes=":5_0_0 :5_1_0 :5_4_0 :5_5_0 :5_10_0 :5_11_0 :5_c2_0 :5_c3_0"/>

    <connection from="D1" to="D6" fromLane="1" toLane="1" via=":5_6_0" dir="r" state="m"/>
    <connection from="D1" to="D2" fromLane="1" toLane="1" via=":5_7_0" dir="s" state="M"/>
    <connection from="D1" to="D8" fromLane="1" toLane="1" via=":5_8_0" dir="l" state="m"/>
    <connection from="D3" to="D8" fromLane="1" toLane="1" via=":5_0_0" dir="r" state="m"/>
    <connection from="D3" to="D4" fromLane="1" toLane="1" via=":5_1_0" dir="s" state="M"/>
    <connection from="D3" to="D6" fromLane="1" toLane="1" via=":5_2_0" dir="l" state="m"/>
    <connection from="D5" to="D4" fromLane="1" toLane="1" via=":5_9_0" dir="r" state="m"/>
    <connection from="D5" to="D6" fromLane="1" toLane="1" via=":5_10_0" dir="s" state="m"/>
    <connection from="D5" to="D2" fromLane="1" toLane="1" via=":5_11_0" dir="l" state="m"/>
    <connection from="D7" to="D2" fromLane="1" toLane="1" via=":5_3_0" dir="r" state="m"/>
    <connection from="D7" to="D8" fromLane="1" toLane="1" via=":5_4_0" dir="s" state="m"/>
    <connection from="D7" to="D4" fromLane="1" toLane="1" via=":5_5_0" dir="l" state="m"/>

    <connection from=":5_0" to="D8" fromLane="0" toLane="1" via=":5_12_0" dir="r" state="m"/>
    <connection from=":5_12" to="D8" fromLane="0" toLane="1" dir="r" state="m"/>
    <connection from=":5_1" to="D4" fromLane="0" toLane="1" dir="s" state="M"/>
    <connection from=":5_2" to="D6" fromLane="0" toLane="1" via=":5_13_0" dir="l" state="m"/>
    <connection from=":5_13" to="D6" fromLane="0" toLane="1" dir="l" state="m"/>
    <connection from=":5_3" to="D2" fromLane="0" toLane="1" dir="r" state="M"/>
    <connection from=":5_4" to="D8" fromLane="0" toLane="1" dir="s" state="M"/>
    <connection from=":5_5" to="D4" fromLane="0" toLane="1" dir="l" state="M"/>
    <connection from=":5_6" to="D6" fromLane="0" toLane="1" via=":5_14_0" dir="r" state="m"/>
    <connection from=":5_14" to="D6" fromLane="0" toLane="1" dir="r" state="m"/>
    <connection from=":5_7" to="D2" fromLane="0" toLane="1" dir="s" state="M"/>
    <connection from=":5_8" to="D8" fromLane="0" toLane="1" via=":5_15_0" dir="l" state="m"/>
    <connection from=":5_15" to="D8" fromLane="0" toLane="1" dir="l" state="m"/>
    <connection from=":5_9" to="D4" fromLane="0" toLane="1" dir="r" state="M"/>
    <connection from=":5_10" to="D6" fromLane="0" toLane="1" dir="s" state="M"/>
    <connection from=":5_11" to="D2" fromLane="0" toLane="1" dir="l" state="M"/>

    <connection from=":1_w0" to="D1" fromLane="0" toLane="0" dir="s" state="M"/>
    <connection from="D4" to=":1_w0" fromLane="0" toLane="0" dir="s" state="M"/>
    <connection from=":2_w0" to="D3" fromLane="0" toLane="0" dir="s" state="M"/>
    <connection from="D2" to=":2_w0" fromLane="0" toLane="0" dir="s" state="M"/>
    <connection from=":3_w0" to="D5" fromLane="0" toLane="0" dir="s" state="M"/>
    <connection from="D8" to=":3_w0" fromLane="0" toLane="0" dir="s" state="M"/>
    <connection from=":4_w0" to="D7" fromLane="0" toLane="0" dir="s" state="M"/>
    <connection from="D6" to=":4_w0" fromLane="0" toLane="0" dir="s" state="M"/>
    <connection from=":5_c0" to=":5_w0" fromLane="0" toLane="0" dir="s" state="M"/>
    <connection from=":5_c1" to=":5_w1" fromLane="0" toLane="0" dir="s" state="M"/>
    <connection from=":5_c2" to=":5_w2" fromLane="0" toLane="0" dir="s" state="M"/>
    <connection from=":5_c3" to=":5_w3" fromLane="0" toLane="0" dir="s" state="M"/>
    <connection from=":5_w0" to=":5_c3" fromLane="0" toLane="0" dir="s" state="m"/>
    <connection from=":5_w0" to="D8" fromLane="0" toLane="0" dir="s" state="M"/>
    <connection from="D3" to=":5_w0" fromLane="0" toLane="0" dir="s" state="M"/>
    <connection from=":5_w1" to=":5_c0" fromLane="0" toLane="0" dir="s" state="m"/>
    <connection from=":5_w1" to="D2" fromLane="0" toLane="0" dir="s" state="M"/>
    <connection from="D7" to=":5_w1" fromLane="0" toLane="0" dir="s" state="M"/>
    <connection from=":5_w2" to=":5_c1" fromLane="0" toLane="0" dir="s" state="m"/>
    <connection from=":5_w2" to="D6" fromLane="0" toLane="0" dir="s" state="M"/>
    <connection from="D1" to=":5_w2" fromLane="0" toLane="0" dir="s" state="M"/>
    <connection from=":5_w3" to=":5_c2" fromLane="0" toLane="0" dir="s" state="m"/>
    <connection from=":5_w3" to="D4" fromLane="0" toLane="0" dir="s" state="M"/>
    <connection from="D5" to=":5_w3" fromLane="0" toLane="0" dir="s" state="M"/>
</net>
